Circuit: * C:\users\igor-emlid\My Documents\LTspiceXVII\Lab1\comparator_test.asc

WARNING: Node X1:X1:X1:N002 is floating.
WARNING: Node X1:X1:X1:N003 is floating.
WARNING: Node X1:X1:X1:N004 is floating.
WARNING: Node X1:X1:X1:N005 is floating.
WARNING: Node X1:X1:X2:N002 is floating.
WARNING: Node X1:X1:X2:N003 is floating.
WARNING: Node X1:X1:X2:N004 is floating.
WARNING: Node X1:X1:X2:N005 is floating.
WARNING: Node X1:X1:X3:N002 is floating.
WARNING: Node X1:X1:X3:N003 is floating.
WARNING: Node X1:X1:X3:N004 is floating.
WARNING: Node X1:X1:X3:N005 is floating.
WARNING: Node X1:X1:X4:N002 is floating.
WARNING: Node X1:X1:X4:N003 is floating.
WARNING: Node X1:X1:X4:N004 is floating.
WARNING: Node X1:X1:X4:N005 is floating.
WARNING: Node X1:X1:X5:N002 is floating.
WARNING: Node X1:X1:X5:N003 is floating.
WARNING: Node X1:X1:X5:N004 is floating.
WARNING: Node X1:X1:X5:N005 is floating.
WARNING: Node X1:X1:X6:N002 is floating.
WARNING: Node X1:X1:X6:N003 is floating.
WARNING: Node X1:X1:X6:N004 is floating.
WARNING: Node X1:X1:X6:N005 is floating.
WARNING: Node X1:X1:X7:N002 is floating.
WARNING: Node X1:X1:X7:N003 is floating.
WARNING: Node X1:X1:X7:N004 is floating.
WARNING: Node X1:X1:X7:N005 is floating.
WARNING: Node X1:X1:X8:N002 is floating.
WARNING: Node X1:X1:X8:N003 is floating.
WARNING: Node X1:X1:X8:N004 is floating.
WARNING: Node X1:X1:X8:N005 is floating.
WARNING: Node X1:X1:X9:N002 is floating.
WARNING: Node X1:X1:X9:N003 is floating.
WARNING: Node X1:X1:X9:N004 is floating.
WARNING: Node X1:X1:X9:N005 is floating.
WARNING: Node X1:X1:X10:N002 is floating.
WARNING: Node X1:X1:X10:N003 is floating.
WARNING: Node X1:X1:X10:N004 is floating.
WARNING: Node X1:X1:X10:N005 is floating.
WARNING: Node X1:X1:X11:N002 is floating.
WARNING: Node X1:X1:X11:N003 is floating.
WARNING: Node X1:X1:X11:N004 is floating.
WARNING: Node X1:X1:X11:N005 is floating.
WARNING: Node X1:X1:X12:N002 is floating.
WARNING: Node X1:X1:X12:N003 is floating.
WARNING: Node X1:X1:X12:N004 is floating.
WARNING: Node X1:X1:X12:N005 is floating.
WARNING: Node X1:X1:X13:N002 is floating.
WARNING: Node X1:X1:X13:N003 is floating.
WARNING: Node X1:X1:X13:N004 is floating.
WARNING: Node X1:X1:X13:N005 is floating.
WARNING: Node X1:X1:X14:N002 is floating.
WARNING: Node X1:X1:X14:N003 is floating.
WARNING: Node X1:X1:X14:N004 is floating.
WARNING: Node X1:X1:X14:N005 is floating.
WARNING: Node X1:X1:X15:N002 is floating.
WARNING: Node X1:X1:X15:N003 is floating.
WARNING: Node X1:X1:X15:N004 is floating.
WARNING: Node X1:X1:X15:N005 is floating.
WARNING: Node X1:X2:X1:N002 is floating.
WARNING: Node X1:X2:X1:N003 is floating.
WARNING: Node X1:X2:X1:N004 is floating.
WARNING: Node X1:X2:X1:N005 is floating.
WARNING: Node X1:X2:X2:N002 is floating.
WARNING: Node X1:X2:X2:N003 is floating.
WARNING: Node X1:X2:X2:N004 is floating.
WARNING: Node X1:X2:X2:N005 is floating.
WARNING: Node X1:X2:X3:N002 is floating.
WARNING: Node X1:X2:X3:N003 is floating.
WARNING: Node X1:X2:X3:N004 is floating.
WARNING: Node X1:X2:X3:N005 is floating.
WARNING: Node X1:X2:X4:N002 is floating.
WARNING: Node X1:X2:X4:N003 is floating.
WARNING: Node X1:X2:X4:N004 is floating.
WARNING: Node X1:X2:X4:N005 is floating.
WARNING: Node X1:X2:X5:N002 is floating.
WARNING: Node X1:X2:X5:N003 is floating.
WARNING: Node X1:X2:X5:N004 is floating.
WARNING: Node X1:X2:X5:N005 is floating.
WARNING: Node X1:X2:X6:N002 is floating.
WARNING: Node X1:X2:X6:N003 is floating.
WARNING: Node X1:X2:X6:N004 is floating.
WARNING: Node X1:X2:X6:N005 is floating.
WARNING: Node X1:X2:X7:N002 is floating.
WARNING: Node X1:X2:X7:N003 is floating.
WARNING: Node X1:X2:X7:N004 is floating.
WARNING: Node X1:X2:X7:N005 is floating.
WARNING: Node X1:X2:X8:N002 is floating.
WARNING: Node X1:X2:X8:N003 is floating.
WARNING: Node X1:X2:X8:N004 is floating.
WARNING: Node X1:X2:X8:N005 is floating.
WARNING: Node X1:X2:X9:N002 is floating.
WARNING: Node X1:X2:X9:N003 is floating.
WARNING: Node X1:X2:X9:N004 is floating.
WARNING: Node X1:X2:X9:N005 is floating.
WARNING: Node X1:X2:X10:N002 is floating.
WARNING: Node X1:X2:X10:N003 is floating.
WARNING: Node X1:X2:X10:N004 is floating.
WARNING: Node X1:X2:X10:N005 is floating.
WARNING: Node X1:X2:X11:N002 is floating.
WARNING: Node X1:X2:X11:N003 is floating.
WARNING: Node X1:X2:X11:N004 is floating.
WARNING: Node X1:X2:X11:N005 is floating.
WARNING: Node X1:X2:X12:N002 is floating.
WARNING: Node X1:X2:X12:N003 is floating.
WARNING: Node X1:X2:X12:N004 is floating.
WARNING: Node X1:X2:X12:N005 is floating.
WARNING: Node X1:X2:X13:N002 is floating.
WARNING: Node X1:X2:X13:N003 is floating.
WARNING: Node X1:X2:X13:N004 is floating.
WARNING: Node X1:X2:X13:N005 is floating.
WARNING: Node X1:X2:X14:N002 is floating.
WARNING: Node X1:X2:X14:N003 is floating.
WARNING: Node X1:X2:X14:N004 is floating.
WARNING: Node X1:X2:X14:N005 is floating.
WARNING: Node X1:X2:X15:N002 is floating.
WARNING: Node X1:X2:X15:N003 is floating.
WARNING: Node X1:X2:X15:N004 is floating.
WARNING: Node X1:X2:X15:N005 is floating.
WARNING: Node X1:X3:X1:N002 is floating.
WARNING: Node X1:X3:X1:N003 is floating.
WARNING: Node X1:X3:X1:N004 is floating.
WARNING: Node X1:X3:X1:N005 is floating.
WARNING: Node X1:X3:X2:N002 is floating.
WARNING: Node X1:X3:X2:N003 is floating.
WARNING: Node X1:X3:X2:N004 is floating.
WARNING: Node X1:X3:X2:N005 is floating.
WARNING: Node X1:X3:X3:N002 is floating.
WARNING: Node X1:X3:X3:N003 is floating.
WARNING: Node X1:X3:X3:N004 is floating.
WARNING: Node X1:X3:X3:N005 is floating.
WARNING: Node X1:X3:X4:N002 is floating.
WARNING: Node X1:X3:X4:N003 is floating.
WARNING: Node X1:X3:X4:N004 is floating.
WARNING: Node X1:X3:X4:N005 is floating.
WARNING: Node X1:X3:X5:N002 is floating.
WARNING: Node X1:X3:X5:N003 is floating.
WARNING: Node X1:X3:X5:N004 is floating.
WARNING: Node X1:X3:X5:N005 is floating.
WARNING: Node X1:X3:X6:N002 is floating.
WARNING: Node X1:X3:X6:N003 is floating.
WARNING: Node X1:X3:X6:N004 is floating.
WARNING: Node X1:X3:X6:N005 is floating.
WARNING: Node X1:X3:X7:N002 is floating.
WARNING: Node X1:X3:X7:N003 is floating.
WARNING: Node X1:X3:X7:N004 is floating.
WARNING: Node X1:X3:X7:N005 is floating.
WARNING: Node X1:X3:X8:N002 is floating.
WARNING: Node X1:X3:X8:N003 is floating.
WARNING: Node X1:X3:X8:N004 is floating.
WARNING: Node X1:X3:X8:N005 is floating.
WARNING: Node X1:X3:X9:N002 is floating.
WARNING: Node X1:X3:X9:N003 is floating.
WARNING: Node X1:X3:X9:N004 is floating.
WARNING: Node X1:X3:X9:N005 is floating.
WARNING: Node X1:X3:X10:N002 is floating.
WARNING: Node X1:X3:X10:N003 is floating.
WARNING: Node X1:X3:X10:N004 is floating.
WARNING: Node X1:X3:X10:N005 is floating.
WARNING: Node X1:X3:X11:N002 is floating.
WARNING: Node X1:X3:X11:N003 is floating.
WARNING: Node X1:X3:X11:N004 is floating.
WARNING: Node X1:X3:X11:N005 is floating.
WARNING: Node X1:X3:X12:N002 is floating.
WARNING: Node X1:X3:X12:N003 is floating.
WARNING: Node X1:X3:X12:N004 is floating.
WARNING: Node X1:X3:X12:N005 is floating.
WARNING: Node X1:X3:X13:N002 is floating.
WARNING: Node X1:X3:X13:N003 is floating.
WARNING: Node X1:X3:X13:N004 is floating.
WARNING: Node X1:X3:X13:N005 is floating.
WARNING: Node X1:X3:X14:N002 is floating.
WARNING: Node X1:X3:X14:N003 is floating.
WARNING: Node X1:X3:X14:N004 is floating.
WARNING: Node X1:X3:X14:N005 is floating.
WARNING: Node X1:X3:X15:N002 is floating.
WARNING: Node X1:X3:X15:N003 is floating.
WARNING: Node X1:X3:X15:N004 is floating.
WARNING: Node X1:X3:X15:N005 is floating.
WARNING: Node X1:X4:X1:N002 is floating.
WARNING: Node X1:X4:X1:N003 is floating.
WARNING: Node X1:X4:X1:N004 is floating.
WARNING: Node X1:X4:X1:N005 is floating.
WARNING: Node X1:X4:X2:N002 is floating.
WARNING: Node X1:X4:X2:N003 is floating.
WARNING: Node X1:X4:X2:N004 is floating.
WARNING: Node X1:X4:X2:N005 is floating.
WARNING: Node X1:X4:X3:N002 is floating.
WARNING: Node X1:X4:X3:N003 is floating.
WARNING: Node X1:X4:X3:N004 is floating.
WARNING: Node X1:X4:X3:N005 is floating.
WARNING: Node X1:X4:X4:N002 is floating.
WARNING: Node X1:X4:X4:N003 is floating.
WARNING: Node X1:X4:X4:N004 is floating.
WARNING: Node X1:X4:X4:N005 is floating.
WARNING: Node X1:X4:X5:N002 is floating.
WARNING: Node X1:X4:X5:N003 is floating.
WARNING: Node X1:X4:X5:N004 is floating.
WARNING: Node X1:X4:X5:N005 is floating.
WARNING: Node X1:X4:X6:N002 is floating.
WARNING: Node X1:X4:X6:N003 is floating.
WARNING: Node X1:X4:X6:N004 is floating.
WARNING: Node X1:X4:X6:N005 is floating.
WARNING: Node X1:X4:X7:N002 is floating.
WARNING: Node X1:X4:X7:N003 is floating.
WARNING: Node X1:X4:X7:N004 is floating.
WARNING: Node X1:X4:X7:N005 is floating.
WARNING: Node X1:X4:X8:N002 is floating.
WARNING: Node X1:X4:X8:N003 is floating.
WARNING: Node X1:X4:X8:N004 is floating.
WARNING: Node X1:X4:X8:N005 is floating.
WARNING: Node X1:X4:X9:N002 is floating.
WARNING: Node X1:X4:X9:N003 is floating.
WARNING: Node X1:X4:X9:N004 is floating.
WARNING: Node X1:X4:X9:N005 is floating.
WARNING: Node X1:X4:X10:N002 is floating.
WARNING: Node X1:X4:X10:N003 is floating.
WARNING: Node X1:X4:X10:N004 is floating.
WARNING: Node X1:X4:X10:N005 is floating.
WARNING: Node X1:X4:X11:N002 is floating.
WARNING: Node X1:X4:X11:N003 is floating.
WARNING: Node X1:X4:X11:N004 is floating.
WARNING: Node X1:X4:X11:N005 is floating.
WARNING: Node X1:X4:X12:N002 is floating.
WARNING: Node X1:X4:X12:N003 is floating.
WARNING: Node X1:X4:X12:N004 is floating.
WARNING: Node X1:X4:X12:N005 is floating.
WARNING: Node X1:X4:X13:N002 is floating.
WARNING: Node X1:X4:X13:N003 is floating.
WARNING: Node X1:X4:X13:N004 is floating.
WARNING: Node X1:X4:X13:N005 is floating.
WARNING: Node X1:X4:X14:N002 is floating.
WARNING: Node X1:X4:X14:N003 is floating.
WARNING: Node X1:X4:X14:N004 is floating.
WARNING: Node X1:X4:X14:N005 is floating.
WARNING: Node X1:X4:X15:N002 is floating.
WARNING: Node X1:X4:X15:N003 is floating.
WARNING: Node X1:X4:X15:N004 is floating.
WARNING: Node X1:X4:X15:N005 is floating.
WARNING: Node X1:X5:N002 is floating.
WARNING: Node X1:X5:N003 is floating.
WARNING: Node X1:X5:N004 is floating.
WARNING: Node X1:X5:N005 is floating.
WARNING: Node X1:X6:N002 is floating.
WARNING: Node X1:X6:N003 is floating.
WARNING: Node X1:X6:N004 is floating.
WARNING: Node X1:X6:N005 is floating.
WARNING: Node X1:X7:N002 is floating.
WARNING: Node X1:X7:N003 is floating.
WARNING: Node X1:X7:N004 is floating.
WARNING: Node X1:X7:N005 is floating.
WARNING: Node X1:X8:N002 is floating.
WARNING: Node X1:X8:N003 is floating.
WARNING: Node X1:X8:N004 is floating.
WARNING: Node X1:X8:N005 is floating.
WARNING: Node X1:X9:N002 is floating.
WARNING: Node X1:X9:N003 is floating.
WARNING: Node X1:X9:N004 is floating.
WARNING: Node X1:X9:N005 is floating.
WARNING: Node X1:X10:N002 is floating.
WARNING: Node X1:X10:N003 is floating.
WARNING: Node X1:X10:N004 is floating.
WARNING: Node X1:X10:N005 is floating.
WARNING: Node X1:X11:N002 is floating.
WARNING: Node X1:X11:N003 is floating.
WARNING: Node X1:X11:N004 is floating.
WARNING: Node X1:X11:N005 is floating.
WARNING: Node X1:X12:N002 is floating.
WARNING: Node X1:X12:N003 is floating.
WARNING: Node X1:X12:N004 is floating.
WARNING: Node X1:X12:N005 is floating.
WARNING: Node X1:X13:N002 is floating.
WARNING: Node X1:X13:N003 is floating.
WARNING: Node X1:X13:N004 is floating.
WARNING: Node X1:X13:N005 is floating.
WARNING: Node X1:X14:N002 is floating.
WARNING: Node X1:X14:N003 is floating.
WARNING: Node X1:X14:N004 is floating.
WARNING: Node X1:X14:N005 is floating.

WARNING: Less than two connections to node X1:X1:X1:N002.  This node is used by M:X1:X1:X1:1.
WARNING: Less than two connections to node X1:X1:X1:N003.  This node is used by M:X1:X1:X1:2.
WARNING: Less than two connections to node X1:X1:X1:N004.  This node is used by M:X1:X1:X1:3.
WARNING: Less than two connections to node X1:X1:X1:N005.  This node is used by M:X1:X1:X1:4.
WARNING: Less than two connections to node X1:X1:X2:N002.  This node is used by M:X1:X1:X2:1.
WARNING: Less than two connections to node X1:X1:X2:N003.  This node is used by M:X1:X1:X2:2.
WARNING: Less than two connections to node X1:X1:X2:N004.  This node is used by M:X1:X1:X2:3.
WARNING: Less than two connections to node X1:X1:X2:N005.  This node is used by M:X1:X1:X2:4.
WARNING: Less than two connections to node X1:X1:X3:N002.  This node is used by M:X1:X1:X3:1.
WARNING: Less than two connections to node X1:X1:X3:N003.  This node is used by M:X1:X1:X3:2.
WARNING: Less than two connections to node X1:X1:X3:N004.  This node is used by M:X1:X1:X3:3.
WARNING: Less than two connections to node X1:X1:X3:N005.  This node is used by M:X1:X1:X3:4.
WARNING: Less than two connections to node X1:X1:X4:N002.  This node is used by M:X1:X1:X4:1.
WARNING: Less than two connections to node X1:X1:X4:N003.  This node is used by M:X1:X1:X4:2.
WARNING: Less than two connections to node X1:X1:X4:N004.  This node is used by M:X1:X1:X4:3.
WARNING: Less than two connections to node X1:X1:X4:N005.  This node is used by M:X1:X1:X4:4.
WARNING: Less than two connections to node X1:X1:X5:N002.  This node is used by M:X1:X1:X5:1.
WARNING: Less than two connections to node X1:X1:X5:N003.  This node is used by M:X1:X1:X5:2.
WARNING: Less than two connections to node X1:X1:X5:N004.  This node is used by M:X1:X1:X5:3.
WARNING: Less than two connections to node X1:X1:X5:N005.  This node is used by M:X1:X1:X5:4.
WARNING: Less than two connections to node X1:X1:X6:N002.  This node is used by M:X1:X1:X6:1.
WARNING: Less than two connections to node X1:X1:X6:N003.  This node is used by M:X1:X1:X6:2.
WARNING: Less than two connections to node X1:X1:X6:N004.  This node is used by M:X1:X1:X6:3.
WARNING: Less than two connections to node X1:X1:X6:N005.  This node is used by M:X1:X1:X6:4.
WARNING: Less than two connections to node X1:X1:X7:N002.  This node is used by M:X1:X1:X7:1.
WARNING: Less than two connections to node X1:X1:X7:N003.  This node is used by M:X1:X1:X7:2.
WARNING: Less than two connections to node X1:X1:X7:N004.  This node is used by M:X1:X1:X7:3.
WARNING: Less than two connections to node X1:X1:X7:N005.  This node is used by M:X1:X1:X7:4.
WARNING: Less than two connections to node X1:X1:X8:N002.  This node is used by M:X1:X1:X8:1.
WARNING: Less than two connections to node X1:X1:X8:N003.  This node is used by M:X1:X1:X8:2.
WARNING: Less than two connections to node X1:X1:X8:N004.  This node is used by M:X1:X1:X8:3.
WARNING: Less than two connections to node X1:X1:X8:N005.  This node is used by M:X1:X1:X8:4.
WARNING: Less than two connections to node X1:X1:X9:N002.  This node is used by M:X1:X1:X9:1.
WARNING: Less than two connections to node X1:X1:X9:N003.  This node is used by M:X1:X1:X9:2.
WARNING: Less than two connections to node X1:X1:X9:N004.  This node is used by M:X1:X1:X9:3.
WARNING: Less than two connections to node X1:X1:X9:N005.  This node is used by M:X1:X1:X9:4.
WARNING: Less than two connections to node X1:X1:X10:N002.  This node is used by M:X1:X1:X10:1.
WARNING: Less than two connections to node X1:X1:X10:N003.  This node is used by M:X1:X1:X10:2.
WARNING: Less than two connections to node X1:X1:X10:N004.  This node is used by M:X1:X1:X10:3.
WARNING: Less than two connections to node X1:X1:X10:N005.  This node is used by M:X1:X1:X10:4.
WARNING: Less than two connections to node X1:X1:X11:N002.  This node is used by M:X1:X1:X11:1.
WARNING: Less than two connections to node X1:X1:X11:N003.  This node is used by M:X1:X1:X11:2.
WARNING: Less than two connections to node X1:X1:X11:N004.  This node is used by M:X1:X1:X11:3.
WARNING: Less than two connections to node X1:X1:X11:N005.  This node is used by M:X1:X1:X11:4.
WARNING: Less than two connections to node X1:X1:X12:N002.  This node is used by M:X1:X1:X12:1.
WARNING: Less than two connections to node X1:X1:X12:N003.  This node is used by M:X1:X1:X12:2.
WARNING: Less than two connections to node X1:X1:X12:N004.  This node is used by M:X1:X1:X12:3.
WARNING: Less than two connections to node X1:X1:X12:N005.  This node is used by M:X1:X1:X12:4.
WARNING: Less than two connections to node X1:X1:X13:N002.  This node is used by M:X1:X1:X13:1.
WARNING: Less than two connections to node X1:X1:X13:N003.  This node is used by M:X1:X1:X13:2.
WARNING: Less than two connections to node X1:X1:X13:N004.  This node is used by M:X1:X1:X13:3.
WARNING: Less than two connections to node X1:X1:X13:N005.  This node is used by M:X1:X1:X13:4.
WARNING: Less than two connections to node X1:X1:X14:N002.  This node is used by M:X1:X1:X14:1.
WARNING: Less than two connections to node X1:X1:X14:N003.  This node is used by M:X1:X1:X14:2.
WARNING: Less than two connections to node X1:X1:X14:N004.  This node is used by M:X1:X1:X14:3.
WARNING: Less than two connections to node X1:X1:X14:N005.  This node is used by M:X1:X1:X14:4.
WARNING: Less than two connections to node X1:X1:X15:N002.  This node is used by M:X1:X1:X15:1.
WARNING: Less than two connections to node X1:X1:X15:N003.  This node is used by M:X1:X1:X15:2.
WARNING: Less than two connections to node X1:X1:X15:N004.  This node is used by M:X1:X1:X15:3.
WARNING: Less than two connections to node X1:X1:X15:N005.  This node is used by M:X1:X1:X15:4.
WARNING: Less than two connections to node X1:X2:X1:N002.  This node is used by M:X1:X2:X1:1.
WARNING: Less than two connections to node X1:X2:X1:N003.  This node is used by M:X1:X2:X1:2.
WARNING: Less than two connections to node X1:X2:X1:N004.  This node is used by M:X1:X2:X1:3.
WARNING: Less than two connections to node X1:X2:X1:N005.  This node is used by M:X1:X2:X1:4.
WARNING: Less than two connections to node X1:X2:X2:N002.  This node is used by M:X1:X2:X2:1.
WARNING: Less than two connections to node X1:X2:X2:N003.  This node is used by M:X1:X2:X2:2.
WARNING: Less than two connections to node X1:X2:X2:N004.  This node is used by M:X1:X2:X2:3.
WARNING: Less than two connections to node X1:X2:X2:N005.  This node is used by M:X1:X2:X2:4.
WARNING: Less than two connections to node X1:X2:X3:N002.  This node is used by M:X1:X2:X3:1.
WARNING: Less than two connections to node X1:X2:X3:N003.  This node is used by M:X1:X2:X3:2.
WARNING: Less than two connections to node X1:X2:X3:N004.  This node is used by M:X1:X2:X3:3.
WARNING: Less than two connections to node X1:X2:X3:N005.  This node is used by M:X1:X2:X3:4.
WARNING: Less than two connections to node X1:X2:X4:N002.  This node is used by M:X1:X2:X4:1.
WARNING: Less than two connections to node X1:X2:X4:N003.  This node is used by M:X1:X2:X4:2.
WARNING: Less than two connections to node X1:X2:X4:N004.  This node is used by M:X1:X2:X4:3.
WARNING: Less than two connections to node X1:X2:X4:N005.  This node is used by M:X1:X2:X4:4.
WARNING: Less than two connections to node X1:X2:X5:N002.  This node is used by M:X1:X2:X5:1.
WARNING: Less than two connections to node X1:X2:X5:N003.  This node is used by M:X1:X2:X5:2.
WARNING: Less than two connections to node X1:X2:X5:N004.  This node is used by M:X1:X2:X5:3.
WARNING: Less than two connections to node X1:X2:X5:N005.  This node is used by M:X1:X2:X5:4.
WARNING: Less than two connections to node X1:X2:X6:N002.  This node is used by M:X1:X2:X6:1.
WARNING: Less than two connections to node X1:X2:X6:N003.  This node is used by M:X1:X2:X6:2.
WARNING: Less than two connections to node X1:X2:X6:N004.  This node is used by M:X1:X2:X6:3.
WARNING: Less than two connections to node X1:X2:X6:N005.  This node is used by M:X1:X2:X6:4.
WARNING: Less than two connections to node X1:X2:X7:N002.  This node is used by M:X1:X2:X7:1.
WARNING: Less than two connections to node X1:X2:X7:N003.  This node is used by M:X1:X2:X7:2.
WARNING: Less than two connections to node X1:X2:X7:N004.  This node is used by M:X1:X2:X7:3.
WARNING: Less than two connections to node X1:X2:X7:N005.  This node is used by M:X1:X2:X7:4.
WARNING: Less than two connections to node X1:X2:X8:N002.  This node is used by M:X1:X2:X8:1.
WARNING: Less than two connections to node X1:X2:X8:N003.  This node is used by M:X1:X2:X8:2.
WARNING: Less than two connections to node X1:X2:X8:N004.  This node is used by M:X1:X2:X8:3.
WARNING: Less than two connections to node X1:X2:X8:N005.  This node is used by M:X1:X2:X8:4.
WARNING: Less than two connections to node X1:X2:X9:N002.  This node is used by M:X1:X2:X9:1.
WARNING: Less than two connections to node X1:X2:X9:N003.  This node is used by M:X1:X2:X9:2.
WARNING: Less than two connections to node X1:X2:X9:N004.  This node is used by M:X1:X2:X9:3.
WARNING: Less than two connections to node X1:X2:X9:N005.  This node is used by M:X1:X2:X9:4.
WARNING: Less than two connections to node X1:X2:X10:N002.  This node is used by M:X1:X2:X10:1.
WARNING: Less than two connections to node X1:X2:X10:N003.  This node is used by M:X1:X2:X10:2.
WARNING: Less than two connections to node X1:X2:X10:N004.  This node is used by M:X1:X2:X10:3.
WARNING: Less than two connections to node X1:X2:X10:N005.  This node is used by M:X1:X2:X10:4.
WARNING: Less than two connections to node X1:X2:X11:N002.  This node is used by M:X1:X2:X11:1.
WARNING: Less than two connections to node X1:X2:X11:N003.  This node is used by M:X1:X2:X11:2.
WARNING: Less than two connections to node X1:X2:X11:N004.  This node is used by M:X1:X2:X11:3.
WARNING: Less than two connections to node X1:X2:X11:N005.  This node is used by M:X1:X2:X11:4.
WARNING: Less than two connections to node X1:X2:X12:N002.  This node is used by M:X1:X2:X12:1.
WARNING: Less than two connections to node X1:X2:X12:N003.  This node is used by M:X1:X2:X12:2.
WARNING: Less than two connections to node X1:X2:X12:N004.  This node is used by M:X1:X2:X12:3.
WARNING: Less than two connections to node X1:X2:X12:N005.  This node is used by M:X1:X2:X12:4.
WARNING: Less than two connections to node X1:X2:X13:N002.  This node is used by M:X1:X2:X13:1.
WARNING: Less than two connections to node X1:X2:X13:N003.  This node is used by M:X1:X2:X13:2.
WARNING: Less than two connections to node X1:X2:X13:N004.  This node is used by M:X1:X2:X13:3.
WARNING: Less than two connections to node X1:X2:X13:N005.  This node is used by M:X1:X2:X13:4.
WARNING: Less than two connections to node X1:X2:X14:N002.  This node is used by M:X1:X2:X14:1.
WARNING: Less than two connections to node X1:X2:X14:N003.  This node is used by M:X1:X2:X14:2.
WARNING: Less than two connections to node X1:X2:X14:N004.  This node is used by M:X1:X2:X14:3.
WARNING: Less than two connections to node X1:X2:X14:N005.  This node is used by M:X1:X2:X14:4.
WARNING: Less than two connections to node X1:X2:X15:N002.  This node is used by M:X1:X2:X15:1.
WARNING: Less than two connections to node X1:X2:X15:N003.  This node is used by M:X1:X2:X15:2.
WARNING: Less than two connections to node X1:X2:X15:N004.  This node is used by M:X1:X2:X15:3.
WARNING: Less than two connections to node X1:X2:X15:N005.  This node is used by M:X1:X2:X15:4.
WARNING: Less than two connections to node X1:X3:X1:N002.  This node is used by M:X1:X3:X1:1.
WARNING: Less than two connections to node X1:X3:X1:N003.  This node is used by M:X1:X3:X1:2.
WARNING: Less than two connections to node X1:X3:X1:N004.  This node is used by M:X1:X3:X1:3.
WARNING: Less than two connections to node X1:X3:X1:N005.  This node is used by M:X1:X3:X1:4.
WARNING: Less than two connections to node X1:X3:X2:N002.  This node is used by M:X1:X3:X2:1.
WARNING: Less than two connections to node X1:X3:X2:N003.  This node is used by M:X1:X3:X2:2.
WARNING: Less than two connections to node X1:X3:X2:N004.  This node is used by M:X1:X3:X2:3.
WARNING: Less than two connections to node X1:X3:X2:N005.  This node is used by M:X1:X3:X2:4.
WARNING: Less than two connections to node X1:X3:X3:N002.  This node is used by M:X1:X3:X3:1.
WARNING: Less than two connections to node X1:X3:X3:N003.  This node is used by M:X1:X3:X3:2.
WARNING: Less than two connections to node X1:X3:X3:N004.  This node is used by M:X1:X3:X3:3.
WARNING: Less than two connections to node X1:X3:X3:N005.  This node is used by M:X1:X3:X3:4.
WARNING: Less than two connections to node X1:X3:X4:N002.  This node is used by M:X1:X3:X4:1.
WARNING: Less than two connections to node X1:X3:X4:N003.  This node is used by M:X1:X3:X4:2.
WARNING: Less than two connections to node X1:X3:X4:N004.  This node is used by M:X1:X3:X4:3.
WARNING: Less than two connections to node X1:X3:X4:N005.  This node is used by M:X1:X3:X4:4.
WARNING: Less than two connections to node X1:X3:X5:N002.  This node is used by M:X1:X3:X5:1.
WARNING: Less than two connections to node X1:X3:X5:N003.  This node is used by M:X1:X3:X5:2.
WARNING: Less than two connections to node X1:X3:X5:N004.  This node is used by M:X1:X3:X5:3.
WARNING: Less than two connections to node X1:X3:X5:N005.  This node is used by M:X1:X3:X5:4.
WARNING: Less than two connections to node X1:X3:X6:N002.  This node is used by M:X1:X3:X6:1.
WARNING: Less than two connections to node X1:X3:X6:N003.  This node is used by M:X1:X3:X6:2.
WARNING: Less than two connections to node X1:X3:X6:N004.  This node is used by M:X1:X3:X6:3.
WARNING: Less than two connections to node X1:X3:X6:N005.  This node is used by M:X1:X3:X6:4.
WARNING: Less than two connections to node X1:X3:X7:N002.  This node is used by M:X1:X3:X7:1.
WARNING: Less than two connections to node X1:X3:X7:N003.  This node is used by M:X1:X3:X7:2.
WARNING: Less than two connections to node X1:X3:X7:N004.  This node is used by M:X1:X3:X7:3.
WARNING: Less than two connections to node X1:X3:X7:N005.  This node is used by M:X1:X3:X7:4.
WARNING: Less than two connections to node X1:X3:X8:N002.  This node is used by M:X1:X3:X8:1.
WARNING: Less than two connections to node X1:X3:X8:N003.  This node is used by M:X1:X3:X8:2.
WARNING: Less than two connections to node X1:X3:X8:N004.  This node is used by M:X1:X3:X8:3.
WARNING: Less than two connections to node X1:X3:X8:N005.  This node is used by M:X1:X3:X8:4.
WARNING: Less than two connections to node X1:X3:X9:N002.  This node is used by M:X1:X3:X9:1.
WARNING: Less than two connections to node X1:X3:X9:N003.  This node is used by M:X1:X3:X9:2.
WARNING: Less than two connections to node X1:X3:X9:N004.  This node is used by M:X1:X3:X9:3.
WARNING: Less than two connections to node X1:X3:X9:N005.  This node is used by M:X1:X3:X9:4.
WARNING: Less than two connections to node X1:X3:X10:N002.  This node is used by M:X1:X3:X10:1.
WARNING: Less than two connections to node X1:X3:X10:N003.  This node is used by M:X1:X3:X10:2.
WARNING: Less than two connections to node X1:X3:X10:N004.  This node is used by M:X1:X3:X10:3.
WARNING: Less than two connections to node X1:X3:X10:N005.  This node is used by M:X1:X3:X10:4.
WARNING: Less than two connections to node X1:X3:X11:N002.  This node is used by M:X1:X3:X11:1.
WARNING: Less than two connections to node X1:X3:X11:N003.  This node is used by M:X1:X3:X11:2.
WARNING: Less than two connections to node X1:X3:X11:N004.  This node is used by M:X1:X3:X11:3.
WARNING: Less than two connections to node X1:X3:X11:N005.  This node is used by M:X1:X3:X11:4.
WARNING: Less than two connections to node X1:X3:X12:N002.  This node is used by M:X1:X3:X12:1.
WARNING: Less than two connections to node X1:X3:X12:N003.  This node is used by M:X1:X3:X12:2.
WARNING: Less than two connections to node X1:X3:X12:N004.  This node is used by M:X1:X3:X12:3.
WARNING: Less than two connections to node X1:X3:X12:N005.  This node is used by M:X1:X3:X12:4.
WARNING: Less than two connections to node X1:X3:X13:N002.  This node is used by M:X1:X3:X13:1.
WARNING: Less than two connections to node X1:X3:X13:N003.  This node is used by M:X1:X3:X13:2.
WARNING: Less than two connections to node X1:X3:X13:N004.  This node is used by M:X1:X3:X13:3.
WARNING: Less than two connections to node X1:X3:X13:N005.  This node is used by M:X1:X3:X13:4.
WARNING: Less than two connections to node X1:X3:X14:N002.  This node is used by M:X1:X3:X14:1.
WARNING: Less than two connections to node X1:X3:X14:N003.  This node is used by M:X1:X3:X14:2.
WARNING: Less than two connections to node X1:X3:X14:N004.  This node is used by M:X1:X3:X14:3.
WARNING: Less than two connections to node X1:X3:X14:N005.  This node is used by M:X1:X3:X14:4.
WARNING: Less than two connections to node X1:X3:X15:N002.  This node is used by M:X1:X3:X15:1.
WARNING: Less than two connections to node X1:X3:X15:N003.  This node is used by M:X1:X3:X15:2.
WARNING: Less than two connections to node X1:X3:X15:N004.  This node is used by M:X1:X3:X15:3.
WARNING: Less than two connections to node X1:X3:X15:N005.  This node is used by M:X1:X3:X15:4.
WARNING: Less than two connections to node X1:X4:X1:N002.  This node is used by M:X1:X4:X1:1.
WARNING: Less than two connections to node X1:X4:X1:N003.  This node is used by M:X1:X4:X1:2.
WARNING: Less than two connections to node X1:X4:X1:N004.  This node is used by M:X1:X4:X1:3.
WARNING: Less than two connections to node X1:X4:X1:N005.  This node is used by M:X1:X4:X1:4.
WARNING: Less than two connections to node X1:X4:X2:N002.  This node is used by M:X1:X4:X2:1.
WARNING: Less than two connections to node X1:X4:X2:N003.  This node is used by M:X1:X4:X2:2.
WARNING: Less than two connections to node X1:X4:X2:N004.  This node is used by M:X1:X4:X2:3.
WARNING: Less than two connections to node X1:X4:X2:N005.  This node is used by M:X1:X4:X2:4.
WARNING: Less than two connections to node X1:X4:X3:N002.  This node is used by M:X1:X4:X3:1.
WARNING: Less than two connections to node X1:X4:X3:N003.  This node is used by M:X1:X4:X3:2.
WARNING: Less than two connections to node X1:X4:X3:N004.  This node is used by M:X1:X4:X3:3.
WARNING: Less than two connections to node X1:X4:X3:N005.  This node is used by M:X1:X4:X3:4.
WARNING: Less than two connections to node X1:X4:X4:N002.  This node is used by M:X1:X4:X4:1.
WARNING: Less than two connections to node X1:X4:X4:N003.  This node is used by M:X1:X4:X4:2.
WARNING: Less than two connections to node X1:X4:X4:N004.  This node is used by M:X1:X4:X4:3.
WARNING: Less than two connections to node X1:X4:X4:N005.  This node is used by M:X1:X4:X4:4.
WARNING: Less than two connections to node X1:X4:X5:N002.  This node is used by M:X1:X4:X5:1.
WARNING: Less than two connections to node X1:X4:X5:N003.  This node is used by M:X1:X4:X5:2.
WARNING: Less than two connections to node X1:X4:X5:N004.  This node is used by M:X1:X4:X5:3.
WARNING: Less than two connections to node X1:X4:X5:N005.  This node is used by M:X1:X4:X5:4.
WARNING: Less than two connections to node X1:X4:X6:N002.  This node is used by M:X1:X4:X6:1.
WARNING: Less than two connections to node X1:X4:X6:N003.  This node is used by M:X1:X4:X6:2.
WARNING: Less than two connections to node X1:X4:X6:N004.  This node is used by M:X1:X4:X6:3.
WARNING: Less than two connections to node X1:X4:X6:N005.  This node is used by M:X1:X4:X6:4.
WARNING: Less than two connections to node X1:X4:X7:N002.  This node is used by M:X1:X4:X7:1.
WARNING: Less than two connections to node X1:X4:X7:N003.  This node is used by M:X1:X4:X7:2.
WARNING: Less than two connections to node X1:X4:X7:N004.  This node is used by M:X1:X4:X7:3.
WARNING: Less than two connections to node X1:X4:X7:N005.  This node is used by M:X1:X4:X7:4.
WARNING: Less than two connections to node X1:X4:X8:N002.  This node is used by M:X1:X4:X8:1.
WARNING: Less than two connections to node X1:X4:X8:N003.  This node is used by M:X1:X4:X8:2.
WARNING: Less than two connections to node X1:X4:X8:N004.  This node is used by M:X1:X4:X8:3.
WARNING: Less than two connections to node X1:X4:X8:N005.  This node is used by M:X1:X4:X8:4.
WARNING: Less than two connections to node X1:X4:X9:N002.  This node is used by M:X1:X4:X9:1.
WARNING: Less than two connections to node X1:X4:X9:N003.  This node is used by M:X1:X4:X9:2.
WARNING: Less than two connections to node X1:X4:X9:N004.  This node is used by M:X1:X4:X9:3.
WARNING: Less than two connections to node X1:X4:X9:N005.  This node is used by M:X1:X4:X9:4.
WARNING: Less than two connections to node X1:X4:X10:N002.  This node is used by M:X1:X4:X10:1.
WARNING: Less than two connections to node X1:X4:X10:N003.  This node is used by M:X1:X4:X10:2.
WARNING: Less than two connections to node X1:X4:X10:N004.  This node is used by M:X1:X4:X10:3.
WARNING: Less than two connections to node X1:X4:X10:N005.  This node is used by M:X1:X4:X10:4.
WARNING: Less than two connections to node X1:X4:X11:N002.  This node is used by M:X1:X4:X11:1.
WARNING: Less than two connections to node X1:X4:X11:N003.  This node is used by M:X1:X4:X11:2.
WARNING: Less than two connections to node X1:X4:X11:N004.  This node is used by M:X1:X4:X11:3.
WARNING: Less than two connections to node X1:X4:X11:N005.  This node is used by M:X1:X4:X11:4.
WARNING: Less than two connections to node X1:X4:X12:N002.  This node is used by M:X1:X4:X12:1.
WARNING: Less than two connections to node X1:X4:X12:N003.  This node is used by M:X1:X4:X12:2.
WARNING: Less than two connections to node X1:X4:X12:N004.  This node is used by M:X1:X4:X12:3.
WARNING: Less than two connections to node X1:X4:X12:N005.  This node is used by M:X1:X4:X12:4.
WARNING: Less than two connections to node X1:X4:X13:N002.  This node is used by M:X1:X4:X13:1.
WARNING: Less than two connections to node X1:X4:X13:N003.  This node is used by M:X1:X4:X13:2.
WARNING: Less than two connections to node X1:X4:X13:N004.  This node is used by M:X1:X4:X13:3.
WARNING: Less than two connections to node X1:X4:X13:N005.  This node is used by M:X1:X4:X13:4.
WARNING: Less than two connections to node X1:X4:X14:N002.  This node is used by M:X1:X4:X14:1.
WARNING: Less than two connections to node X1:X4:X14:N003.  This node is used by M:X1:X4:X14:2.
WARNING: Less than two connections to node X1:X4:X14:N004.  This node is used by M:X1:X4:X14:3.
WARNING: Less than two connections to node X1:X4:X14:N005.  This node is used by M:X1:X4:X14:4.
WARNING: Less than two connections to node X1:X4:X15:N002.  This node is used by M:X1:X4:X15:1.
WARNING: Less than two connections to node X1:X4:X15:N003.  This node is used by M:X1:X4:X15:2.
WARNING: Less than two connections to node X1:X4:X15:N004.  This node is used by M:X1:X4:X15:3.
WARNING: Less than two connections to node X1:X4:X15:N005.  This node is used by M:X1:X4:X15:4.
WARNING: Less than two connections to node X1:X5:N002.  This node is used by M:X1:X5:1.
WARNING: Less than two connections to node X1:X5:N003.  This node is used by M:X1:X5:2.
WARNING: Less than two connections to node X1:X5:N004.  This node is used by M:X1:X5:3.
WARNING: Less than two connections to node X1:X5:N005.  This node is used by M:X1:X5:4.
WARNING: Less than two connections to node X1:X6:N002.  This node is used by M:X1:X6:1.
WARNING: Less than two connections to node X1:X6:N003.  This node is used by M:X1:X6:2.
WARNING: Less than two connections to node X1:X6:N004.  This node is used by M:X1:X6:3.
WARNING: Less than two connections to node X1:X6:N005.  This node is used by M:X1:X6:4.
WARNING: Less than two connections to node X1:X7:N002.  This node is used by M:X1:X7:1.
WARNING: Less than two connections to node X1:X7:N003.  This node is used by M:X1:X7:2.
WARNING: Less than two connections to node X1:X7:N004.  This node is used by M:X1:X7:3.
WARNING: Less than two connections to node X1:X7:N005.  This node is used by M:X1:X7:4.
WARNING: Less than two connections to node X1:X8:N002.  This node is used by M:X1:X8:1.
WARNING: Less than two connections to node X1:X8:N003.  This node is used by M:X1:X8:2.
WARNING: Less than two connections to node X1:X8:N004.  This node is used by M:X1:X8:3.
WARNING: Less than two connections to node X1:X8:N005.  This node is used by M:X1:X8:4.
WARNING: Less than two connections to node X1:X9:N002.  This node is used by M:X1:X9:1.
WARNING: Less than two connections to node X1:X9:N003.  This node is used by M:X1:X9:2.
WARNING: Less than two connections to node X1:X9:N004.  This node is used by M:X1:X9:3.
WARNING: Less than two connections to node X1:X9:N005.  This node is used by M:X1:X9:4.
WARNING: Less than two connections to node X1:X10:N002.  This node is used by M:X1:X10:1.
WARNING: Less than two connections to node X1:X10:N003.  This node is used by M:X1:X10:2.
WARNING: Less than two connections to node X1:X10:N004.  This node is used by M:X1:X10:3.
WARNING: Less than two connections to node X1:X10:N005.  This node is used by M:X1:X10:4.
WARNING: Less than two connections to node X1:X11:N002.  This node is used by M:X1:X11:1.
WARNING: Less than two connections to node X1:X11:N003.  This node is used by M:X1:X11:2.
WARNING: Less than two connections to node X1:X11:N004.  This node is used by M:X1:X11:3.
WARNING: Less than two connections to node X1:X11:N005.  This node is used by M:X1:X11:4.
WARNING: Less than two connections to node X1:X12:N002.  This node is used by M:X1:X12:1.
WARNING: Less than two connections to node X1:X12:N003.  This node is used by M:X1:X12:2.
WARNING: Less than two connections to node X1:X12:N004.  This node is used by M:X1:X12:3.
WARNING: Less than two connections to node X1:X12:N005.  This node is used by M:X1:X12:4.
WARNING: Less than two connections to node X1:X13:N002.  This node is used by M:X1:X13:1.
WARNING: Less than two connections to node X1:X13:N003.  This node is used by M:X1:X13:2.
WARNING: Less than two connections to node X1:X13:N004.  This node is used by M:X1:X13:3.
WARNING: Less than two connections to node X1:X13:N005.  This node is used by M:X1:X13:4.
WARNING: Less than two connections to node X1:X14:N002.  This node is used by M:X1:X14:1.
WARNING: Less than two connections to node X1:X14:N003.  This node is used by M:X1:X14:2.
WARNING: Less than two connections to node X1:X14:N004.  This node is used by M:X1:X14:3.
WARNING: Less than two connections to node X1:X14:N005.  This node is used by M:X1:X14:4.
Early termination of direct N-R iteration.
Direct Newton iteration failed to find .op point.  (Use ".option noopiter" to skip.)
Starting Gmin stepping
Gmin = 10
Gmin = 1.07374
Gmin = 0.115292
Gmin = 0.0123794
Gmin = 0.00132923
Gmin = 0.000142725
Gmin = 1.5325e-005
Gmin = 1.6455e-006
Gmin = 1.76685e-007
Gmin = 1.89714e-008
Gmin = 2.03704e-009
Gmin = 2.18725e-010
Gmin = 2.34854e-011
Gmin = 2.52173e-012
Gmin = 2.70769e-013
Gmin = 0
Gmin stepping succeeded in finding the operating point.

Heightened Def Con from 7.01e-009 ++++++++++++++++++++++++++++++++++++++++to 7.01e-009
Heightened Def Con from 1.7e-008 ++++++++++++++++++++++++++++++++++++to 1.7e-008
Heightened Def Con from 1.901e-008 ++++++++++++++++++++++++++++++++++++to 1.901e-008
Heightened Def Con from 2e-008 ++++++++++++++++++++++++++++++++++++++to 2e-008
Heightened Def Con from 2.1e-008 +++++++++++++++++++++++++++++++++++++to 2.1e-008
Heightened Def Con from 2.201e-008 +++++++++++++++++++++++++++++++++++++++to 2.201e-008
Heightened Def Con from 2.3e-008 ++++++++++++++++++++++++++++++++++++++to 2.3e-008
Heightened Def Con from 2.5e-008 ++++++++++++++++++++++++++++++++++++to 2.5e-008
Heightened Def Con from 2.701e-008 +++++++++++++++++++++++++++++++++++++to 2.701e-008
Heightened Def Con from 2.9e-008 ++++++++++++++++++++++++++++++++++++to 2.9e-008
Heightened Def Con from 3e-008 +++++++++++++++++++++++++++++++++++++++to 3e-008
Heightened Def Con from 3.101e-008 ++++++++++++++++++++++++++++++++++++++to 3.101e-008

Date: Thu Mar 21 04:17:12 2019
Total elapsed time: 61.073 seconds.

tnom = 27
temp = 27
method = modified trap
totiter = 78642
traniter = 78177
tranpoints = 33450
accept = 32935
rejected = 977
matrix size = 1698
fillins = 2976
solver = Normal
Thread vector: 705.9/410.2[8] 94.3/49.7[8] 35.8/20.2[8] 14.9/9.3[7]  2592/500
Matrix Compiler1: 543.06 KB object code size  232.7/113.2/[55.1]
Matrix Compiler2: 255.75 KB object code size  65.2/50.8/[21.3]

