Circuit: * C:\users\igor-emlid\My Documents\LTspiceXVII\Lab1\comparator.asc

Fatal Error: Can't expand empty subcircuit: one_comp
