Circuit: * C:\users\igor-emlid\My Documents\LTspiceXVII\Lab1\nand.asc

WARNING: Node N004 is floating.
WARNING: Node N005 is floating.
WARNING: Node N007 is floating.
WARNING: Node N008 is floating.

WARNING: Less than two connections to node N004.  This node is used by M1.
WARNING: Less than two connections to node N005.  This node is used by M2.
WARNING: Less than two connections to node N007.  This node is used by M3.
WARNING: Less than two connections to node N008.  This node is used by M4.
Direct Newton iteration for .op point succeeded.

Date: Thu Mar 21 01:21:12 2019
Total elapsed time: 0.335 seconds.

tnom = 27
temp = 27
method = modified trap
totiter = 16227
traniter = 16195
tranpoints = 8080
accept = 8071
rejected = 9
matrix size = 28
fillins = 18
solver = Normal
Matrix Compiler1: 3.97 KB object code size  1.4/0.7/[0.5]
Matrix Compiler2: off  [0.6]/0.7/0.6

