Circuit: * C:\users\igor-emlid\My Documents\LTspiceXVII\Lab1\short.asc

WARNING: Node X1:N002 is floating.
WARNING: Node X1:N003 is floating.
WARNING: Node X1:N004 is floating.
WARNING: Node X1:N005 is floating.
WARNING: Node NC_02 is floating.

WARNING: Less than two connections to node X1:N002.  This node is used by M:X1:1.
WARNING: Less than two connections to node X1:N003.  This node is used by M:X1:2.
WARNING: Less than two connections to node X1:N004.  This node is used by M:X1:3.
WARNING: Less than two connections to node X1:N005.  This node is used by M:X1:4.
WARNING: Less than two connections to node NC_01.  This node is used by R1.
WARNING: Less than two connections to node NC_02.  This node is used by C§100F.
Direct Newton iteration failed to find .op point.  (Use ".option noopiter" to skip.)
Starting Gmin stepping
Gmin = 10
Gmin = 1.07374
Gmin = 0.115292
Gmin = 0.0123794
Gmin = 0.00132923
Gmin = 0.000142725
Gmin = 1.5325e-005
Gmin = 1.6455e-006
Gmin = 1.76685e-007
Gmin = 1.89714e-008
Gmin = 2.03704e-009
Gmin = 2.18725e-010
Gmin = 2.34854e-011
Gmin = 2.52173e-012
Gmin = 2.70769e-013
Gmin = 0
Gmin stepping succeeded in finding the operating point.


Date: Fri Mar 22 04:11:25 2019
Total elapsed time: 0.293 seconds.

tnom = 27
temp = 27
method = modified trap
totiter = 18457
traniter = 17641
tranpoints = 8306
accept = 8232
rejected = 74
matrix size = 30
fillins = 4
solver = Normal
Matrix Compiler1: 3.40 KB object code size  0.8/0.6/[0.4]
Matrix Compiler2: 3.36 KB object code size  0.6/0.7/[0.5]

