Circuit: * C:\users\igor-emlid\My Documents\LTspiceXVII\Lab1\short.asc

WARNING: Node Q:N002 is floating.
WARNING: Node Q:N003 is floating.
WARNING: Node Q:N004 is floating.
WARNING: Node Q:N005 is floating.

WARNING: Less than two connections to node Q:N002.  This node is used by M:Q:1.
WARNING: Less than two connections to node Q:N003.  This node is used by M:Q:2.
WARNING: Less than two connections to node Q:N004.  This node is used by M:Q:3.
WARNING: Less than two connections to node Q:N005.  This node is used by M:Q:4.
Direct Newton iteration for .op point succeeded.

Date: Thu Mar 21 01:32:40 2019
Total elapsed time: 0.235 seconds.

tnom = 27
temp = 27
method = modified trap
totiter = 16227
traniter = 16195
tranpoints = 8080
accept = 8071
rejected = 9
matrix size = 28
fillins = 18
solver = Normal
Matrix Compiler1: 3.97 KB object code size  1.0/0.7/[0.5]
Matrix Compiler2: off  [0.6]/0.6/1.0

